
**** 09/11/19 20:06:48 ****** PSpice 16.5.0 (April 2011) ****** ID# 0 ********

 ** Profile: "SCHEMATIC1-bias"  [ C:\Users\uriel\Desktop\Practica 1\Practica 1.5\practica 1-5-pspicefiles\schematic1\bias.sim ] 


 ****     CIRCUIT DESCRIPTION


******************************************************************************




** Creating circuit file "bias.cir" 
** WARNING: THIS AUTOMATICALLY GENERATED FILE MAY BE OVERWRITTEN BY SUBSEQUENT SIMULATIONS

*Libraries: 
* Profile Libraries :
* Local Libraries :
* From [PSPICE NETLIST] section of C:\Cadence\SPB_16.5\tools\PSpice\PSpice.ini file:
.lib "nom.lib" 

*Analysis directives: 
.TRAN 50u 60ms 0 50u 
.PROBE V(alias(*)) I(alias(*)) W(alias(*)) D(alias(*)) NOISE(alias(*)) 
.INC "..\SCHEMATIC1.net" 



**** INCLUDING SCHEMATIC1.net ****
* source PRACTICA 1-5
D_D1         N14673 N14735 Dbreak 
D_D2         N14673 $D_LO Dbreak 
D_D3         $D_LO N14706 Dbreak 
D_D4         N14735 N14706 Dbreak 
C_C1         N14706 N14673 C
----------------------------$
ERROR(ORPSIM-16387): Missing value
R_Rcarga         N14673 N14706  1k TC=0,0 
R_R2         N14673 0  10meg TC=0,0 
L_Lr         $D_HI N14735  10mH  

**** RESUMING bias.cir ****
.END
